  2 'GENROU' 1  4.800000  0.010000  0.500000  0.000800  4.129600  2.000000  1.700000
  1.620000  0.256000  0.245000  0.185000  0.155000  0.125000  0.450000  /
  2 'IEEET1' 1  0  30  0.4  4.59  -4.59  -0.02  0.56  0.05  1.3  0  2.5875  0.7298  3.45  1.3496  /
  2 'BPA_GG' 1  0.85185  0.001  0.1  0  0.259  0.1  10  0.272  /
  3 'GENROU' 1  8.970000  0.033000  0.500000  0.070000  4.768000  2.000000  1.220000
  1.160000  0.174000  0.250000  0.134000  0.007800  0.102600  0.432000  /
  3 'IEEET1' 1  0.06  25  0.2  1  -1  -0.0601  0.6758  0.108  0.35  0  2.4975  0.0949  3.33  0.37026  /
  3 'BPA_GG' 1  1.056  0.003  0.083  0  0.2  0.05  5  0.28  /
