      2 'GENROU' 1     6.0000      0.50000E-01  0.53500      0.50000E-01
          3.3300      0.67000       1.7200       1.6600      0.23000
         0.37000      0.21000      0.10000       1.0100       1.0200    /
      2 'PSS2A'  1          1            0            3            0
               5            1       2.0000       2.0000       0.0000
          2.0000       4.0000       2.0000      0.25000       1.0000
         0.50000      0.10000       30.000      0.15000      0.30000E-01
         0.15000      0.30000E-01  0.10000     -0.10000     /
      2 'IEEET1' 0     0.0000       20.000      0.20000       3.0000
         -3.0000       1.0000      0.31400      0.63000E-01  0.35000
          0.0000       2.8000      0.30340       3.7300       1.2884    /
      3 'GENROU' 1     5.8900      0.50000E-01  0.60000      0.50000E-01
          2.3500      0.47000       1.6800       1.6100      0.23206
         0.32000      0.21000      0.15360       1.0100       1.0200    /
      3 'PSS2A'  1          1            0            3            0
               5            1       2.0000       2.0000       0.0000
          2.0000       4.0000       2.0000      0.25000       1.0000
         0.50000      0.10000       30.000      0.15000      0.30000E-01
         0.15000      0.30000E-01  0.10000     -0.10000     /
      3 'IEEET1' 1     0.0000       20.000      0.20000       3.0000
         -3.0000       1.0000      0.31400      0.63000E-01  0.35000
          0.0000       2.8000      0.30340       3.7300       1.2884    /
      3 'IEESGO' 0     25.000       0.0000       1.0000       1.0000
          12.500       0.0000       5.0000       3.0000      0.50000
          1.0000       0.0000    /
